12
# Step number 0
C         -1.40024273      0.02232486      0.00000000
C         -0.71074846     -1.25212625      0.00000000
C          0.67044064     -1.27415126      0.00000000
C          1.40024254     -0.02232486      0.00000000
C          0.71074856      1.25212608      0.00000000
C         -0.67044053      1.27415143      0.00000000
H         -1.29869210     -2.17946235      0.00000000
H          1.22851910     -2.21976360      0.00000000
H          2.50436689     -0.03994437      0.00000000
H          1.29869187      2.17946273      0.00000000
H         -1.22851937      2.21976321      0.00000000
H         -2.50436664      0.03994438      0.00000000
